  Page 1                                    Wed Oct  8 10:21:37 2025

  ******************************************************************
  *                           E P A N E T                          *
  *                   Hydraulic and Water Quality                  *
  *                   Analysis for Pipe Networks                   *
  *                         Version 2.2                            *
  ******************************************************************
  
  Analysis begun Wed Oct  8 10:21:37 2025

  WARNING: Negative pressures at 0:00:00 hrs.
  WARNING: Node zone1-node2 disconnected at 0:00:00 hrs
  WARNING: Node zone1-node3 disconnected at 0:00:00 hrs
  WARNING: Node zone1-node4 disconnected at 0:00:00 hrs
  WARNING: Node zone1-node5 disconnected at 0:00:00 hrs
  WARNING: Node zone1-node6 disconnected at 0:00:00 hrs
  WARNING: Node zone1-node7 disconnected at 0:00:00 hrs
  WARNING: Node zone1-node8 disconnected at 0:00:00 hrs
  WARNING: Node zone1-node9 disconnected at 0:00:00 hrs
  WARNING: Node zone1-node1 disconnected at 0:00:00 hrs
  WARNING: System disconnected because of Link zone4-pump2
   
  WARNING: Negative pressures at 0:00:01 hrs.
  WARNING: Node zone1-node2 disconnected at 0:00:01 hrs
  WARNING: Node zone1-node3 disconnected at 0:00:01 hrs
  WARNING: Node zone1-node4 disconnected at 0:00:01 hrs
  WARNING: Node zone1-node5 disconnected at 0:00:01 hrs
  WARNING: Node zone1-node6 disconnected at 0:00:01 hrs
  WARNING: Node zone1-node7 disconnected at 0:00:01 hrs
  WARNING: Node zone1-node8 disconnected at 0:00:01 hrs
  WARNING: Node zone1-node9 disconnected at 0:00:01 hrs
  WARNING: Node zone1-node1 disconnected at 0:00:01 hrs
  WARNING: System disconnected because of Link zone4-pump2
   
  WARNING: Negative pressures at 0:00:02 hrs.
  WARNING: Node zone1-node2 disconnected at 0:00:02 hrs
  WARNING: Node zone1-node3 disconnected at 0:00:02 hrs
  WARNING: Node zone1-node4 disconnected at 0:00:02 hrs
  WARNING: Node zone1-node5 disconnected at 0:00:02 hrs
  WARNING: Node zone1-node6 disconnected at 0:00:02 hrs
  WARNING: Node zone1-node7 disconnected at 0:00:02 hrs
  WARNING: Node zone1-node8 disconnected at 0:00:02 hrs
  WARNING: Node zone1-node9 disconnected at 0:00:02 hrs
  WARNING: Node zone1-node1 disconnected at 0:00:02 hrs
  WARNING: System disconnected because of Link zone4-pump2
   
  WARNING: Negative pressures at 0:00:03 hrs.
  WARNING: Node zone1-node2 disconnected at 0:00:03 hrs
  WARNING: Node zone1-node3 disconnected at 0:00:03 hrs
  WARNING: Node zone1-node4 disconnected at 0:00:03 hrs
  WARNING: Node zone1-node5 disconnected at 0:00:03 hrs
  WARNING: Node zone1-node6 disconnected at 0:00:03 hrs
  WARNING: Node zone1-node7 disconnected at 0:00:03 hrs
  WARNING: Node zone1-node8 disconnected at 0:00:03 hrs
  WARNING: Node zone1-node9 disconnected at 0:00:03 hrs
  WARNING: Node zone1-node1 disconnected at 0:00:03 hrs
  WARNING: System disconnected because of Link zone4-pump2
   
  WARNING: Negative pressures at 0:00:04 hrs.
  WARNING: Node zone1-node2 disconnected at 0:00:04 hrs
  WARNING: Node zone1-node3 disconnected at 0:00:04 hrs
  WARNING: Node zone1-node4 disconnected at 0:00:04 hrs
  WARNING: Node zone1-node5 disconnected at 0:00:04 hrs
  WARNING: Node zone1-node6 disconnected at 0:00:04 hrs
  WARNING: Node zone1-node7 disconnected at 0:00:04 hrs
  WARNING: Node zone1-node8 disconnected at 0:00:04 hrs
  WARNING: Node zone1-node9 disconnected at 0:00:04 hrs
  WARNING: Node zone1-node1 disconnected at 0:00:04 hrs
  WARNING: System disconnected because of Link zone4-pump2
   
  WARNING: Negative pressures at 0:00:05 hrs.
  WARNING: Node zone1-node2 disconnected at 0:00:05 hrs
  WARNING: Node zone1-node3 disconnected at 0:00:05 hrs
  WARNING: Node zone1-node4 disconnected at 0:00:05 hrs
  WARNING: Node zone1-node5 disconnected at 0:00:05 hrs
  WARNING: Node zone1-node6 disconnected at 0:00:05 hrs
  WARNING: Node zone1-node7 disconnected at 0:00:05 hrs
  WARNING: Node zone1-node8 disconnected at 0:00:05 hrs
  WARNING: Node zone1-node9 disconnected at 0:00:05 hrs
  WARNING: Node zone1-node1 disconnected at 0:00:05 hrs
  WARNING: System disconnected because of Link zone4-pump2
   
  WARNING: Negative pressures at 0:00:06 hrs.
  WARNING: Node zone1-node2 disconnected at 0:00:06 hrs
  WARNING: Node zone1-node3 disconnected at 0:00:06 hrs
  WARNING: Node zone1-node4 disconnected at 0:00:06 hrs
  WARNING: Node zone1-node5 disconnected at 0:00:06 hrs
  WARNING: Node zone1-node6 disconnected at 0:00:06 hrs
  WARNING: Node zone1-node7 disconnected at 0:00:06 hrs
  WARNING: Node zone1-node8 disconnected at 0:00:06 hrs
  WARNING: Node zone1-node9 disconnected at 0:00:06 hrs
  WARNING: Node zone1-node1 disconnected at 0:00:06 hrs
  WARNING: System disconnected because of Link zone4-pump2
   
  WARNING: Negative pressures at 0:00:07 hrs.
  WARNING: Node zone1-node2 disconnected at 0:00:07 hrs
  WARNING: Node zone1-node3 disconnected at 0:00:07 hrs
  WARNING: Node zone1-node4 disconnected at 0:00:07 hrs
  WARNING: Node zone1-node5 disconnected at 0:00:07 hrs
  WARNING: Node zone1-node6 disconnected at 0:00:07 hrs
  WARNING: Node zone1-node7 disconnected at 0:00:07 hrs
  WARNING: Node zone1-node8 disconnected at 0:00:07 hrs
  WARNING: Node zone1-node9 disconnected at 0:00:07 hrs
  WARNING: Node zone1-node1 disconnected at 0:00:07 hrs
  WARNING: System disconnected because of Link zone4-pump2
   
  WARNING: Negative pressures at 0:00:08 hrs.
  WARNING: Node zone1-node2 disconnected at 0:00:08 hrs
  WARNING: Node zone1-node3 disconnected at 0:00:08 hrs
  WARNING: Node zone1-node4 disconnected at 0:00:08 hrs
  WARNING: Node zone1-node5 disconnected at 0:00:08 hrs
  WARNING: Node zone1-node6 disconnected at 0:00:08 hrs
  WARNING: Node zone1-node7 disconnected at 0:00:08 hrs
  WARNING: Node zone1-node8 disconnected at 0:00:08 hrs
  WARNING: Node zone1-node9 disconnected at 0:00:08 hrs
  WARNING: Node zone1-node1 disconnected at 0:00:08 hrs
  WARNING: System disconnected because of Link zone4-pump2
   
  WARNING: Negative pressures at 0:00:09 hrs.
  WARNING: Node zone1-node2 disconnected at 0:00:09 hrs
  WARNING: Node zone1-node3 disconnected at 0:00:09 hrs
  WARNING: Node zone1-node4 disconnected at 0:00:09 hrs
  WARNING: Node zone1-node5 disconnected at 0:00:09 hrs
  WARNING: Node zone1-node6 disconnected at 0:00:09 hrs
  WARNING: Node zone1-node7 disconnected at 0:00:09 hrs
  WARNING: Node zone1-node8 disconnected at 0:00:09 hrs
  WARNING: Node zone1-node9 disconnected at 0:00:09 hrs
  WARNING: Node zone1-node1 disconnected at 0:00:09 hrs
  WARNING: System disconnected because of Link zone4-pump2
   
  WARNING: Negative pressures at 0:00:10 hrs.
  WARNING: Node zone1-node2 disconnected at 0:00:10 hrs
  WARNING: Node zone1-node3 disconnected at 0:00:10 hrs
  WARNING: Node zone1-node4 disconnected at 0:00:10 hrs
  WARNING: Node zone1-node5 disconnected at 0:00:10 hrs
  WARNING: Node zone1-node6 disconnected at 0:00:10 hrs
  WARNING: Node zone1-node7 disconnected at 0:00:10 hrs
  WARNING: Node zone1-node8 disconnected at 0:00:10 hrs
  WARNING: Node zone1-node9 disconnected at 0:00:10 hrs
  WARNING: Node zone1-node1 disconnected at 0:00:10 hrs
  WARNING: System disconnected because of Link zone4-pump2
   
  WARNING: Negative pressures at 0:00:11 hrs.
  WARNING: Node zone1-node2 disconnected at 0:00:11 hrs
  WARNING: Node zone1-node3 disconnected at 0:00:11 hrs
  WARNING: Node zone1-node4 disconnected at 0:00:11 hrs
  WARNING: Node zone1-node5 disconnected at 0:00:11 hrs
  WARNING: Node zone1-node6 disconnected at 0:00:11 hrs
  WARNING: Node zone1-node7 disconnected at 0:00:11 hrs
  WARNING: Node zone1-node8 disconnected at 0:00:11 hrs
  WARNING: Node zone1-node9 disconnected at 0:00:11 hrs
  WARNING: Node zone1-node1 disconnected at 0:00:11 hrs
  WARNING: System disconnected because of Link zone4-pump2
   
  WARNING: Negative pressures at 0:00:12 hrs.
  WARNING: Node zone1-node2 disconnected at 0:00:12 hrs
  WARNING: Node zone1-node3 disconnected at 0:00:12 hrs
  WARNING: Node zone1-node4 disconnected at 0:00:12 hrs
  WARNING: Node zone1-node5 disconnected at 0:00:12 hrs
  WARNING: Node zone1-node6 disconnected at 0:00:12 hrs
  WARNING: Node zone1-node7 disconnected at 0:00:12 hrs
  WARNING: Node zone1-node8 disconnected at 0:00:12 hrs
  WARNING: Node zone1-node9 disconnected at 0:00:12 hrs
  WARNING: Node zone1-node1 disconnected at 0:00:12 hrs
  WARNING: System disconnected because of Link zone4-pump2
   
  WARNING: Negative pressures at 0:00:13 hrs.
  WARNING: Node zone1-node2 disconnected at 0:00:13 hrs
  WARNING: Node zone1-node3 disconnected at 0:00:13 hrs
  WARNING: Node zone1-node4 disconnected at 0:00:13 hrs
  WARNING: Node zone1-node5 disconnected at 0:00:13 hrs
  WARNING: Node zone1-node6 disconnected at 0:00:13 hrs
  WARNING: Node zone1-node7 disconnected at 0:00:13 hrs
  WARNING: Node zone1-node8 disconnected at 0:00:13 hrs
  WARNING: Node zone1-node9 disconnected at 0:00:13 hrs
  WARNING: Node zone1-node1 disconnected at 0:00:13 hrs
  WARNING: System disconnected because of Link zone4-pump2
   
  WARNING: Negative pressures at 0:00:14 hrs.
  WARNING: Node zone1-node2 disconnected at 0:00:14 hrs
  WARNING: Node zone1-node3 disconnected at 0:00:14 hrs
  WARNING: Node zone1-node4 disconnected at 0:00:14 hrs
  WARNING: Node zone1-node5 disconnected at 0:00:14 hrs
  WARNING: Node zone1-node6 disconnected at 0:00:14 hrs
  WARNING: Node zone1-node7 disconnected at 0:00:14 hrs
  WARNING: Node zone1-node8 disconnected at 0:00:14 hrs
  WARNING: Node zone1-node9 disconnected at 0:00:14 hrs
  WARNING: Node zone1-node1 disconnected at 0:00:14 hrs
  WARNING: System disconnected because of Link zone4-pump2
   
  WARNING: Negative pressures at 0:00:15 hrs.
  WARNING: Node zone1-node2 disconnected at 0:00:15 hrs
  WARNING: Node zone1-node3 disconnected at 0:00:15 hrs
  WARNING: Node zone1-node4 disconnected at 0:00:15 hrs
  WARNING: Node zone1-node5 disconnected at 0:00:15 hrs
  WARNING: Node zone1-node6 disconnected at 0:00:15 hrs
  WARNING: Node zone1-node7 disconnected at 0:00:15 hrs
  WARNING: Node zone1-node8 disconnected at 0:00:15 hrs
  WARNING: Node zone1-node9 disconnected at 0:00:15 hrs
  WARNING: Node zone1-node1 disconnected at 0:00:15 hrs
  WARNING: System disconnected because of Link zone4-pump2
   
  WARNING: Negative pressures at 0:00:16 hrs.
  WARNING: Node zone1-node2 disconnected at 0:00:16 hrs
  WARNING: Node zone1-node3 disconnected at 0:00:16 hrs
  WARNING: Node zone1-node4 disconnected at 0:00:16 hrs
  WARNING: Node zone1-node5 disconnected at 0:00:16 hrs
  WARNING: Node zone1-node6 disconnected at 0:00:16 hrs
  WARNING: Node zone1-node7 disconnected at 0:00:16 hrs
  WARNING: Node zone1-node8 disconnected at 0:00:16 hrs
  WARNING: Node zone1-node9 disconnected at 0:00:16 hrs
  WARNING: Node zone1-node1 disconnected at 0:00:16 hrs
  WARNING: System disconnected because of Link zone4-pump2
   
  WARNING: Negative pressures at 0:00:17 hrs.
  WARNING: Node zone1-node2 disconnected at 0:00:17 hrs
  WARNING: Node zone1-node3 disconnected at 0:00:17 hrs
  WARNING: Node zone1-node4 disconnected at 0:00:17 hrs
  WARNING: Node zone1-node5 disconnected at 0:00:17 hrs
  WARNING: Node zone1-node6 disconnected at 0:00:17 hrs
  WARNING: Node zone1-node7 disconnected at 0:00:17 hrs
  WARNING: Node zone1-node8 disconnected at 0:00:17 hrs
  WARNING: Node zone1-node9 disconnected at 0:00:17 hrs
  WARNING: Node zone1-node1 disconnected at 0:00:17 hrs
  WARNING: System disconnected because of Link zone4-pump2
   
  WARNING: Negative pressures at 0:00:18 hrs.
  WARNING: Node zone1-node2 disconnected at 0:00:18 hrs
  WARNING: Node zone1-node3 disconnected at 0:00:18 hrs
  WARNING: Node zone1-node4 disconnected at 0:00:18 hrs
  WARNING: Node zone1-node5 disconnected at 0:00:18 hrs
  WARNING: Node zone1-node6 disconnected at 0:00:18 hrs
  WARNING: Node zone1-node7 disconnected at 0:00:18 hrs
  WARNING: Node zone1-node8 disconnected at 0:00:18 hrs
  WARNING: Node zone1-node9 disconnected at 0:00:18 hrs
  WARNING: Node zone1-node1 disconnected at 0:00:18 hrs
  WARNING: System disconnected because of Link zone4-pump2
   
  WARNING: Negative pressures at 0:00:19 hrs.
  WARNING: Node zone1-node2 disconnected at 0:00:19 hrs
  WARNING: Node zone1-node3 disconnected at 0:00:19 hrs
  WARNING: Node zone1-node4 disconnected at 0:00:19 hrs
  WARNING: Node zone1-node5 disconnected at 0:00:19 hrs
  WARNING: Node zone1-node6 disconnected at 0:00:19 hrs
  WARNING: Node zone1-node7 disconnected at 0:00:19 hrs
  WARNING: Node zone1-node8 disconnected at 0:00:19 hrs
  WARNING: Node zone1-node9 disconnected at 0:00:19 hrs
  WARNING: Node zone1-node1 disconnected at 0:00:19 hrs
  WARNING: System disconnected because of Link zone4-pump2
   
  WARNING: Negative pressures at 0:00:20 hrs.
  WARNING: Node zone1-node2 disconnected at 0:00:20 hrs
  WARNING: Node zone1-node3 disconnected at 0:00:20 hrs
  WARNING: Node zone1-node4 disconnected at 0:00:20 hrs
  WARNING: Node zone1-node5 disconnected at 0:00:20 hrs
  WARNING: Node zone1-node6 disconnected at 0:00:20 hrs
  WARNING: Node zone1-node7 disconnected at 0:00:20 hrs
  WARNING: Node zone1-node8 disconnected at 0:00:20 hrs
  WARNING: Node zone1-node9 disconnected at 0:00:20 hrs
  WARNING: Node zone1-node1 disconnected at 0:00:20 hrs
  WARNING: System disconnected because of Link zone4-pump2
   
  WARNING: Negative pressures at 0:00:21 hrs.
  WARNING: Node zone1-node2 disconnected at 0:00:21 hrs
  WARNING: Node zone1-node3 disconnected at 0:00:21 hrs
  WARNING: Node zone1-node4 disconnected at 0:00:21 hrs
  WARNING: Node zone1-node5 disconnected at 0:00:21 hrs
  WARNING: Node zone1-node6 disconnected at 0:00:21 hrs
  WARNING: Node zone1-node7 disconnected at 0:00:21 hrs
  WARNING: Node zone1-node8 disconnected at 0:00:21 hrs
  WARNING: Node zone1-node9 disconnected at 0:00:21 hrs
  WARNING: Node zone1-node1 disconnected at 0:00:21 hrs
  WARNING: System disconnected because of Link zone4-pump2
   
  WARNING: Negative pressures at 0:00:22 hrs.
  WARNING: Node zone1-node2 disconnected at 0:00:22 hrs
  WARNING: Node zone1-node3 disconnected at 0:00:22 hrs
  WARNING: Node zone1-node4 disconnected at 0:00:22 hrs
  WARNING: Node zone1-node5 disconnected at 0:00:22 hrs
  WARNING: Node zone1-node6 disconnected at 0:00:22 hrs
  WARNING: Node zone1-node7 disconnected at 0:00:22 hrs
  WARNING: Node zone1-node8 disconnected at 0:00:22 hrs
  WARNING: Node zone1-node9 disconnected at 0:00:22 hrs
  WARNING: Node zone1-node1 disconnected at 0:00:22 hrs
  WARNING: System disconnected because of Link zone4-pump2
   
  WARNING: Negative pressures at 0:00:23 hrs.
  WARNING: Node zone1-node2 disconnected at 0:00:23 hrs
  WARNING: Node zone1-node3 disconnected at 0:00:23 hrs
  WARNING: Node zone1-node4 disconnected at 0:00:23 hrs
  WARNING: Node zone1-node5 disconnected at 0:00:23 hrs
  WARNING: Node zone1-node6 disconnected at 0:00:23 hrs
  WARNING: Node zone1-node7 disconnected at 0:00:23 hrs
  WARNING: Node zone1-node8 disconnected at 0:00:23 hrs
  WARNING: Node zone1-node9 disconnected at 0:00:23 hrs
  WARNING: Node zone1-node1 disconnected at 0:00:23 hrs
  WARNING: System disconnected because of Link zone4-pump2
   
  WARNING: Negative pressures at 0:00:24 hrs.
  WARNING: Node zone1-node2 disconnected at 0:00:24 hrs
  WARNING: Node zone1-node3 disconnected at 0:00:24 hrs
  WARNING: Node zone1-node4 disconnected at 0:00:24 hrs
  WARNING: Node zone1-node5 disconnected at 0:00:24 hrs
  WARNING: Node zone1-node6 disconnected at 0:00:24 hrs
  WARNING: Node zone1-node7 disconnected at 0:00:24 hrs
  WARNING: Node zone1-node8 disconnected at 0:00:24 hrs
  WARNING: Node zone1-node9 disconnected at 0:00:24 hrs
  WARNING: Node zone1-node1 disconnected at 0:00:24 hrs
  WARNING: System disconnected because of Link zone4-pump2
   
  WARNING: Negative pressures at 0:00:25 hrs.
  WARNING: Node zone1-node2 disconnected at 0:00:25 hrs
  WARNING: Node zone1-node3 disconnected at 0:00:25 hrs
  WARNING: Node zone1-node4 disconnected at 0:00:25 hrs
  WARNING: Node zone1-node5 disconnected at 0:00:25 hrs
  WARNING: Node zone1-node6 disconnected at 0:00:25 hrs
  WARNING: Node zone1-node7 disconnected at 0:00:25 hrs
  WARNING: Node zone1-node8 disconnected at 0:00:25 hrs
  WARNING: Node zone1-node9 disconnected at 0:00:25 hrs
  WARNING: Node zone1-node1 disconnected at 0:00:25 hrs
  WARNING: System disconnected because of Link zone4-pump2
   
  WARNING: Negative pressures at 0:00:26 hrs.
  WARNING: Node zone1-node2 disconnected at 0:00:26 hrs
  WARNING: Node zone1-node3 disconnected at 0:00:26 hrs
  WARNING: Node zone1-node4 disconnected at 0:00:26 hrs
  WARNING: Node zone1-node5 disconnected at 0:00:26 hrs
  WARNING: Node zone1-node6 disconnected at 0:00:26 hrs
  WARNING: Node zone1-node7 disconnected at 0:00:26 hrs
  WARNING: Node zone1-node8 disconnected at 0:00:26 hrs
  WARNING: Node zone1-node9 disconnected at 0:00:26 hrs
  WARNING: Node zone1-node1 disconnected at 0:00:26 hrs
  WARNING: System disconnected because of Link zone4-pump2
   
  WARNING: Negative pressures at 0:00:27 hrs.
  WARNING: Node zone1-node2 disconnected at 0:00:27 hrs
  WARNING: Node zone1-node3 disconnected at 0:00:27 hrs
  WARNING: Node zone1-node4 disconnected at 0:00:27 hrs
  WARNING: Node zone1-node5 disconnected at 0:00:27 hrs
  WARNING: Node zone1-node6 disconnected at 0:00:27 hrs
  WARNING: Node zone1-node7 disconnected at 0:00:27 hrs
  WARNING: Node zone1-node8 disconnected at 0:00:27 hrs
  WARNING: Node zone1-node9 disconnected at 0:00:27 hrs
  WARNING: Node zone1-node1 disconnected at 0:00:27 hrs
  WARNING: System disconnected because of Link zone4-pump2
   
  WARNING: Negative pressures at 0:00:28 hrs.
  WARNING: Node zone1-node2 disconnected at 0:00:28 hrs
  WARNING: Node zone1-node3 disconnected at 0:00:28 hrs
  WARNING: Node zone1-node4 disconnected at 0:00:28 hrs
  WARNING: Node zone1-node5 disconnected at 0:00:28 hrs
  WARNING: Node zone1-node6 disconnected at 0:00:28 hrs
  WARNING: Node zone1-node7 disconnected at 0:00:28 hrs
  WARNING: Node zone1-node8 disconnected at 0:00:28 hrs
  WARNING: Node zone1-node9 disconnected at 0:00:28 hrs
  WARNING: Node zone1-node1 disconnected at 0:00:28 hrs
  WARNING: System disconnected because of Link zone4-pump2
   
  WARNING: Negative pressures at 0:00:29 hrs.
  WARNING: Node zone1-node2 disconnected at 0:00:29 hrs
  WARNING: Node zone1-node3 disconnected at 0:00:29 hrs
  WARNING: Node zone1-node4 disconnected at 0:00:29 hrs
  WARNING: Node zone1-node5 disconnected at 0:00:29 hrs
  WARNING: Node zone1-node6 disconnected at 0:00:29 hrs
  WARNING: Node zone1-node7 disconnected at 0:00:29 hrs
  WARNING: Node zone1-node8 disconnected at 0:00:29 hrs
  WARNING: Node zone1-node9 disconnected at 0:00:29 hrs
  WARNING: Node zone1-node1 disconnected at 0:00:29 hrs
  WARNING: System disconnected because of Link zone4-pump2
   
  WARNING: Negative pressures at 0:00:30 hrs.
  WARNING: Node zone1-node2 disconnected at 0:00:30 hrs
  WARNING: Node zone1-node3 disconnected at 0:00:30 hrs
  WARNING: Node zone1-node4 disconnected at 0:00:30 hrs
  WARNING: Node zone1-node5 disconnected at 0:00:30 hrs
  WARNING: Node zone1-node6 disconnected at 0:00:30 hrs
  WARNING: Node zone1-node7 disconnected at 0:00:30 hrs
  WARNING: Node zone1-node8 disconnected at 0:00:30 hrs
  WARNING: Node zone1-node9 disconnected at 0:00:30 hrs
  WARNING: Node zone1-node1 disconnected at 0:00:30 hrs
  WARNING: System disconnected because of Link zone4-pump2
   
  WARNING: Negative pressures at 0:00:31 hrs.
  WARNING: Node zone1-node2 disconnected at 0:00:31 hrs
  WARNING: Node zone1-node3 disconnected at 0:00:31 hrs
  WARNING: Node zone1-node4 disconnected at 0:00:31 hrs
  WARNING: Node zone1-node5 disconnected at 0:00:31 hrs
  WARNING: Node zone1-node6 disconnected at 0:00:31 hrs
  WARNING: Node zone1-node7 disconnected at 0:00:31 hrs
  WARNING: Node zone1-node8 disconnected at 0:00:31 hrs
  WARNING: Node zone1-node9 disconnected at 0:00:31 hrs
  WARNING: Node zone1-node1 disconnected at 0:00:31 hrs
  WARNING: System disconnected because of Link zone4-pump2
   
  WARNING: Negative pressures at 0:00:32 hrs.
  WARNING: Node zone1-node2 disconnected at 0:00:32 hrs
  WARNING: Node zone1-node3 disconnected at 0:00:32 hrs
  WARNING: Node zone1-node4 disconnected at 0:00:32 hrs
  WARNING: Node zone1-node5 disconnected at 0:00:32 hrs
  WARNING: Node zone1-node6 disconnected at 0:00:32 hrs
  WARNING: Node zone1-node7 disconnected at 0:00:32 hrs
  WARNING: Node zone1-node8 disconnected at 0:00:32 hrs
  WARNING: Node zone1-node9 disconnected at 0:00:32 hrs
  WARNING: Node zone1-node1 disconnected at 0:00:32 hrs
  WARNING: System disconnected because of Link zone4-pump2
   
  WARNING: Negative pressures at 0:00:33 hrs.
  WARNING: Node zone1-node2 disconnected at 0:00:33 hrs
  WARNING: Node zone1-node3 disconnected at 0:00:33 hrs
  WARNING: Node zone1-node4 disconnected at 0:00:33 hrs
  WARNING: Node zone1-node5 disconnected at 0:00:33 hrs
  WARNING: Node zone1-node6 disconnected at 0:00:33 hrs
  WARNING: Node zone1-node7 disconnected at 0:00:33 hrs
  WARNING: Node zone1-node8 disconnected at 0:00:33 hrs
  WARNING: Node zone1-node9 disconnected at 0:00:33 hrs
  WARNING: Node zone1-node1 disconnected at 0:00:33 hrs
  WARNING: System disconnected because of Link zone4-pump2
   
  WARNING: Negative pressures at 0:00:34 hrs.
  WARNING: Node zone1-node2 disconnected at 0:00:34 hrs
  WARNING: Node zone1-node3 disconnected at 0:00:34 hrs
  WARNING: Node zone1-node4 disconnected at 0:00:34 hrs
  WARNING: Node zone1-node5 disconnected at 0:00:34 hrs
  WARNING: Node zone1-node6 disconnected at 0:00:34 hrs
  WARNING: Node zone1-node7 disconnected at 0:00:34 hrs
  WARNING: Node zone1-node8 disconnected at 0:00:34 hrs
  WARNING: Node zone1-node9 disconnected at 0:00:34 hrs
  WARNING: Node zone1-node1 disconnected at 0:00:34 hrs
  WARNING: System disconnected because of Link zone4-pump2
   
  WARNING: Negative pressures at 0:00:35 hrs.
  WARNING: Node zone1-node2 disconnected at 0:00:35 hrs
  WARNING: Node zone1-node3 disconnected at 0:00:35 hrs
  WARNING: Node zone1-node4 disconnected at 0:00:35 hrs
  WARNING: Node zone1-node5 disconnected at 0:00:35 hrs
  WARNING: Node zone1-node6 disconnected at 0:00:35 hrs
  WARNING: Node zone1-node7 disconnected at 0:00:35 hrs
  WARNING: Node zone1-node8 disconnected at 0:00:35 hrs
  WARNING: Node zone1-node9 disconnected at 0:00:35 hrs
  WARNING: Node zone1-node1 disconnected at 0:00:35 hrs
  WARNING: System disconnected because of Link zone4-pump2
   
  WARNING: Negative pressures at 0:00:36 hrs.
  WARNING: Node zone1-node2 disconnected at 0:00:36 hrs
  WARNING: Node zone1-node3 disconnected at 0:00:36 hrs
  WARNING: Node zone1-node4 disconnected at 0:00:36 hrs
  WARNING: Node zone1-node5 disconnected at 0:00:36 hrs
  WARNING: Node zone1-node6 disconnected at 0:00:36 hrs
  WARNING: Node zone1-node7 disconnected at 0:00:36 hrs
  WARNING: Node zone1-node8 disconnected at 0:00:36 hrs
  WARNING: Node zone1-node9 disconnected at 0:00:36 hrs
  WARNING: Node zone1-node1 disconnected at 0:00:36 hrs
  WARNING: System disconnected because of Link zone4-pump2
   
  WARNING: Negative pressures at 0:00:37 hrs.
  WARNING: Node zone1-node2 disconnected at 0:00:37 hrs
  WARNING: Node zone1-node3 disconnected at 0:00:37 hrs
  WARNING: Node zone1-node4 disconnected at 0:00:37 hrs
  WARNING: Node zone1-node5 disconnected at 0:00:37 hrs
  WARNING: Node zone1-node6 disconnected at 0:00:37 hrs
  WARNING: Node zone1-node7 disconnected at 0:00:37 hrs
  WARNING: Node zone1-node8 disconnected at 0:00:37 hrs
  WARNING: Node zone1-node9 disconnected at 0:00:37 hrs
  WARNING: Node zone1-node1 disconnected at 0:00:37 hrs
  WARNING: System disconnected because of Link zone4-pump2
   
  WARNING: Negative pressures at 0:00:38 hrs.
  WARNING: Node zone1-node2 disconnected at 0:00:38 hrs
  WARNING: Node zone1-node3 disconnected at 0:00:38 hrs
  WARNING: Node zone1-node4 disconnected at 0:00:38 hrs
  WARNING: Node zone1-node5 disconnected at 0:00:38 hrs
  WARNING: Node zone1-node6 disconnected at 0:00:38 hrs
  WARNING: Node zone1-node7 disconnected at 0:00:38 hrs
  WARNING: Node zone1-node8 disconnected at 0:00:38 hrs
  WARNING: Node zone1-node9 disconnected at 0:00:38 hrs
  WARNING: Node zone1-node1 disconnected at 0:00:38 hrs
  WARNING: System disconnected because of Link zone4-pump2
   
  WARNING: Negative pressures at 0:00:39 hrs.
  WARNING: Node zone1-node2 disconnected at 0:00:39 hrs
  WARNING: Node zone1-node3 disconnected at 0:00:39 hrs
  WARNING: Node zone1-node4 disconnected at 0:00:39 hrs
  WARNING: Node zone1-node5 disconnected at 0:00:39 hrs
  WARNING: Node zone1-node6 disconnected at 0:00:39 hrs
  WARNING: Node zone1-node7 disconnected at 0:00:39 hrs
  WARNING: Node zone1-node8 disconnected at 0:00:39 hrs
  WARNING: Node zone1-node9 disconnected at 0:00:39 hrs
  WARNING: Node zone1-node1 disconnected at 0:00:39 hrs
  WARNING: System disconnected because of Link zone4-pump2
   
  WARNING: Negative pressures at 0:00:40 hrs.
  WARNING: Node zone1-node2 disconnected at 0:00:40 hrs
  WARNING: Node zone1-node3 disconnected at 0:00:40 hrs
  WARNING: Node zone1-node4 disconnected at 0:00:40 hrs
  WARNING: Node zone1-node5 disconnected at 0:00:40 hrs
  WARNING: Node zone1-node6 disconnected at 0:00:40 hrs
  WARNING: Node zone1-node7 disconnected at 0:00:40 hrs
  WARNING: Node zone1-node8 disconnected at 0:00:40 hrs
  WARNING: Node zone1-node9 disconnected at 0:00:40 hrs
  WARNING: Node zone1-node1 disconnected at 0:00:40 hrs
  WARNING: System disconnected because of Link zone4-pump2
   
  WARNING: Negative pressures at 0:00:41 hrs.
  WARNING: Node zone1-node2 disconnected at 0:00:41 hrs
  WARNING: Node zone1-node3 disconnected at 0:00:41 hrs
  WARNING: Node zone1-node4 disconnected at 0:00:41 hrs
  WARNING: Node zone1-node5 disconnected at 0:00:41 hrs
  WARNING: Node zone1-node6 disconnected at 0:00:41 hrs
  WARNING: Node zone1-node7 disconnected at 0:00:41 hrs
  WARNING: Node zone1-node8 disconnected at 0:00:41 hrs
  WARNING: Node zone1-node9 disconnected at 0:00:41 hrs
  WARNING: Node zone1-node1 disconnected at 0:00:41 hrs
  WARNING: System disconnected because of Link zone4-pump2
   
  WARNING: Negative pressures at 0:00:42 hrs.
  WARNING: Node zone1-node2 disconnected at 0:00:42 hrs
  WARNING: Node zone1-node3 disconnected at 0:00:42 hrs
  WARNING: Node zone1-node4 disconnected at 0:00:42 hrs
  WARNING: Node zone1-node5 disconnected at 0:00:42 hrs
  WARNING: Node zone1-node6 disconnected at 0:00:42 hrs
  WARNING: Node zone1-node7 disconnected at 0:00:42 hrs
  WARNING: Node zone1-node8 disconnected at 0:00:42 hrs
  WARNING: Node zone1-node9 disconnected at 0:00:42 hrs
  WARNING: Node zone1-node1 disconnected at 0:00:42 hrs
  WARNING: System disconnected because of Link zone4-pump2
   
  WARNING: Negative pressures at 0:00:43 hrs.
  WARNING: Node zone1-node2 disconnected at 0:00:43 hrs
  WARNING: Node zone1-node3 disconnected at 0:00:43 hrs
  WARNING: Node zone1-node4 disconnected at 0:00:43 hrs
  WARNING: Node zone1-node5 disconnected at 0:00:43 hrs
  WARNING: Node zone1-node6 disconnected at 0:00:43 hrs
  WARNING: Node zone1-node7 disconnected at 0:00:43 hrs
  WARNING: Node zone1-node8 disconnected at 0:00:43 hrs
  WARNING: Node zone1-node9 disconnected at 0:00:43 hrs
  WARNING: Node zone1-node1 disconnected at 0:00:43 hrs
  WARNING: System disconnected because of Link zone4-pump2
   
  WARNING: Negative pressures at 0:00:44 hrs.
  WARNING: Node zone1-node2 disconnected at 0:00:44 hrs
  WARNING: Node zone1-node3 disconnected at 0:00:44 hrs
  WARNING: Node zone1-node4 disconnected at 0:00:44 hrs
  WARNING: Node zone1-node5 disconnected at 0:00:44 hrs
  WARNING: Node zone1-node6 disconnected at 0:00:44 hrs
  WARNING: Node zone1-node7 disconnected at 0:00:44 hrs
  WARNING: Node zone1-node8 disconnected at 0:00:44 hrs
  WARNING: Node zone1-node9 disconnected at 0:00:44 hrs
  WARNING: Node zone1-node1 disconnected at 0:00:44 hrs
  WARNING: System disconnected because of Link zone4-pump2
   
  WARNING: Negative pressures at 0:00:45 hrs.
  WARNING: Node zone1-node2 disconnected at 0:00:45 hrs
  WARNING: Node zone1-node3 disconnected at 0:00:45 hrs
  WARNING: Node zone1-node4 disconnected at 0:00:45 hrs
  WARNING: Node zone1-node5 disconnected at 0:00:45 hrs
  WARNING: Node zone1-node6 disconnected at 0:00:45 hrs
  WARNING: Node zone1-node7 disconnected at 0:00:45 hrs
  WARNING: Node zone1-node8 disconnected at 0:00:45 hrs
  WARNING: Node zone1-node9 disconnected at 0:00:45 hrs
  WARNING: Node zone1-node1 disconnected at 0:00:45 hrs
  WARNING: System disconnected because of Link zone4-pump2
   
  WARNING: Negative pressures at 0:00:46 hrs.
  WARNING: Node zone1-node2 disconnected at 0:00:46 hrs
  WARNING: Node zone1-node3 disconnected at 0:00:46 hrs
  WARNING: Node zone1-node4 disconnected at 0:00:46 hrs
  WARNING: Node zone1-node5 disconnected at 0:00:46 hrs
  WARNING: Node zone1-node6 disconnected at 0:00:46 hrs
  WARNING: Node zone1-node7 disconnected at 0:00:46 hrs
  WARNING: Node zone1-node8 disconnected at 0:00:46 hrs
  WARNING: Node zone1-node9 disconnected at 0:00:46 hrs
  WARNING: Node zone1-node1 disconnected at 0:00:46 hrs
  WARNING: System disconnected because of Link zone4-pump2
   
  WARNING: Negative pressures at 0:00:47 hrs.
  WARNING: Node zone1-node2 disconnected at 0:00:47 hrs
  WARNING: Node zone1-node3 disconnected at 0:00:47 hrs
  WARNING: Node zone1-node4 disconnected at 0:00:47 hrs
  WARNING: Node zone1-node5 disconnected at 0:00:47 hrs
  WARNING: Node zone1-node6 disconnected at 0:00:47 hrs
  WARNING: Node zone1-node7 disconnected at 0:00:47 hrs
  WARNING: Node zone1-node8 disconnected at 0:00:47 hrs
  WARNING: Node zone1-node9 disconnected at 0:00:47 hrs
  WARNING: Node zone1-node1 disconnected at 0:00:47 hrs
  WARNING: System disconnected because of Link zone4-pump2
   
  WARNING: Negative pressures at 0:00:48 hrs.
  WARNING: Node zone1-node2 disconnected at 0:00:48 hrs
  WARNING: Node zone1-node3 disconnected at 0:00:48 hrs
  WARNING: Node zone1-node4 disconnected at 0:00:48 hrs
  WARNING: Node zone1-node5 disconnected at 0:00:48 hrs
  WARNING: Node zone1-node6 disconnected at 0:00:48 hrs
  WARNING: Node zone1-node7 disconnected at 0:00:48 hrs
  WARNING: Node zone1-node8 disconnected at 0:00:48 hrs
  WARNING: Node zone1-node9 disconnected at 0:00:48 hrs
  WARNING: Node zone1-node1 disconnected at 0:00:48 hrs
  WARNING: System disconnected because of Link zone4-pump2
   
  WARNING: Negative pressures at 0:00:49 hrs.
  WARNING: Node zone1-node2 disconnected at 0:00:49 hrs
  WARNING: Node zone1-node3 disconnected at 0:00:49 hrs
  WARNING: Node zone1-node4 disconnected at 0:00:49 hrs
  WARNING: Node zone1-node5 disconnected at 0:00:49 hrs
  WARNING: Node zone1-node6 disconnected at 0:00:49 hrs
  WARNING: Node zone1-node7 disconnected at 0:00:49 hrs
  WARNING: Node zone1-node8 disconnected at 0:00:49 hrs
  WARNING: Node zone1-node9 disconnected at 0:00:49 hrs
  WARNING: Node zone1-node1 disconnected at 0:00:49 hrs
  WARNING: System disconnected because of Link zone4-pump2
   
  WARNING: Negative pressures at 0:00:50 hrs.
  WARNING: Node zone1-node2 disconnected at 0:00:50 hrs
  WARNING: Node zone1-node3 disconnected at 0:00:50 hrs
  WARNING: Node zone1-node4 disconnected at 0:00:50 hrs
  WARNING: Node zone1-node5 disconnected at 0:00:50 hrs
  WARNING: Node zone1-node6 disconnected at 0:00:50 hrs
  WARNING: Node zone1-node7 disconnected at 0:00:50 hrs
  WARNING: Node zone1-node8 disconnected at 0:00:50 hrs
  WARNING: Node zone1-node9 disconnected at 0:00:50 hrs
  WARNING: Node zone1-node1 disconnected at 0:00:50 hrs
  WARNING: System disconnected because of Link zone4-pump2
   
  WARNING: Negative pressures at 0:00:51 hrs.
  WARNING: Node zone1-node2 disconnected at 0:00:51 hrs
  WARNING: Node zone1-node3 disconnected at 0:00:51 hrs
  WARNING: Node zone1-node4 disconnected at 0:00:51 hrs
  WARNING: Node zone1-node5 disconnected at 0:00:51 hrs
  WARNING: Node zone1-node6 disconnected at 0:00:51 hrs
  WARNING: Node zone1-node7 disconnected at 0:00:51 hrs
  WARNING: Node zone1-node8 disconnected at 0:00:51 hrs
  WARNING: Node zone1-node9 disconnected at 0:00:51 hrs
  WARNING: Node zone1-node1 disconnected at 0:00:51 hrs
  WARNING: System disconnected because of Link zone4-pump2
   
  WARNING: Negative pressures at 0:00:52 hrs.
  WARNING: Node zone1-node2 disconnected at 0:00:52 hrs
  WARNING: Node zone1-node3 disconnected at 0:00:52 hrs
  WARNING: Node zone1-node4 disconnected at 0:00:52 hrs
  WARNING: Node zone1-node5 disconnected at 0:00:52 hrs
  WARNING: Node zone1-node6 disconnected at 0:00:52 hrs
  WARNING: Node zone1-node7 disconnected at 0:00:52 hrs
  WARNING: Node zone1-node8 disconnected at 0:00:52 hrs
  WARNING: Node zone1-node9 disconnected at 0:00:52 hrs
  WARNING: Node zone1-node1 disconnected at 0:00:52 hrs
  WARNING: System disconnected because of Link zone4-pump2
   
  WARNING: Negative pressures at 0:00:53 hrs.
  WARNING: Node zone1-node2 disconnected at 0:00:53 hrs
  WARNING: Node zone1-node3 disconnected at 0:00:53 hrs
  WARNING: Node zone1-node4 disconnected at 0:00:53 hrs
  WARNING: Node zone1-node5 disconnected at 0:00:53 hrs
  WARNING: Node zone1-node6 disconnected at 0:00:53 hrs
  WARNING: Node zone1-node7 disconnected at 0:00:53 hrs
  WARNING: Node zone1-node8 disconnected at 0:00:53 hrs
  WARNING: Node zone1-node9 disconnected at 0:00:53 hrs
  WARNING: Node zone1-node1 disconnected at 0:00:53 hrs
  WARNING: System disconnected because of Link zone4-pump2
   
  WARNING: Negative pressures at 0:00:54 hrs.
  WARNING: Node zone1-node2 disconnected at 0:00:54 hrs
  WARNING: Node zone1-node3 disconnected at 0:00:54 hrs
  WARNING: Node zone1-node4 disconnected at 0:00:54 hrs
  WARNING: Node zone1-node5 disconnected at 0:00:54 hrs
  WARNING: Node zone1-node6 disconnected at 0:00:54 hrs
  WARNING: Node zone1-node7 disconnected at 0:00:54 hrs
  WARNING: Node zone1-node8 disconnected at 0:00:54 hrs
  WARNING: Node zone1-node9 disconnected at 0:00:54 hrs
  WARNING: Node zone1-node1 disconnected at 0:00:54 hrs
  WARNING: System disconnected because of Link zone4-pump2
   
  WARNING: Negative pressures at 0:00:55 hrs.
  WARNING: Node zone1-node2 disconnected at 0:00:55 hrs
  WARNING: Node zone1-node3 disconnected at 0:00:55 hrs
  WARNING: Node zone1-node4 disconnected at 0:00:55 hrs
  WARNING: Node zone1-node5 disconnected at 0:00:55 hrs
  WARNING: Node zone1-node6 disconnected at 0:00:55 hrs
  WARNING: Node zone1-node7 disconnected at 0:00:55 hrs
  WARNING: Node zone1-node8 disconnected at 0:00:55 hrs
  WARNING: Node zone1-node9 disconnected at 0:00:55 hrs
  WARNING: Node zone1-node1 disconnected at 0:00:55 hrs
  WARNING: System disconnected because of Link zone4-pump2
   
  WARNING: Negative pressures at 0:00:56 hrs.
  WARNING: Node zone1-node2 disconnected at 0:00:56 hrs
  WARNING: Node zone1-node3 disconnected at 0:00:56 hrs
  WARNING: Node zone1-node4 disconnected at 0:00:56 hrs
  WARNING: Node zone1-node5 disconnected at 0:00:56 hrs
  WARNING: Node zone1-node6 disconnected at 0:00:56 hrs
  WARNING: Node zone1-node7 disconnected at 0:00:56 hrs
  WARNING: Node zone1-node8 disconnected at 0:00:56 hrs
  WARNING: Node zone1-node9 disconnected at 0:00:56 hrs
  WARNING: Node zone1-node1 disconnected at 0:00:56 hrs
  WARNING: System disconnected because of Link zone4-pump2
   
  WARNING: Negative pressures at 0:00:57 hrs.
  WARNING: Node zone1-node2 disconnected at 0:00:57 hrs
  WARNING: Node zone1-node3 disconnected at 0:00:57 hrs
  WARNING: Node zone1-node4 disconnected at 0:00:57 hrs
  WARNING: Node zone1-node5 disconnected at 0:00:57 hrs
  WARNING: Node zone1-node6 disconnected at 0:00:57 hrs
  WARNING: Node zone1-node7 disconnected at 0:00:57 hrs
  WARNING: Node zone1-node8 disconnected at 0:00:57 hrs
  WARNING: Node zone1-node9 disconnected at 0:00:57 hrs
  WARNING: Node zone1-node1 disconnected at 0:00:57 hrs
  WARNING: System disconnected because of Link zone4-pump2
   
  WARNING: Negative pressures at 0:00:58 hrs.
  WARNING: Node zone1-node2 disconnected at 0:00:58 hrs
  WARNING: Node zone1-node3 disconnected at 0:00:58 hrs
  WARNING: Node zone1-node4 disconnected at 0:00:58 hrs
  WARNING: Node zone1-node5 disconnected at 0:00:58 hrs
  WARNING: Node zone1-node6 disconnected at 0:00:58 hrs
  WARNING: Node zone1-node7 disconnected at 0:00:58 hrs
  WARNING: Node zone1-node8 disconnected at 0:00:58 hrs
  WARNING: Node zone1-node9 disconnected at 0:00:58 hrs
  WARNING: Node zone1-node1 disconnected at 0:00:58 hrs
  WARNING: System disconnected because of Link zone4-pump2
   
  WARNING: Negative pressures at 0:00:59 hrs.
  WARNING: Node zone1-node2 disconnected at 0:00:59 hrs
  WARNING: Node zone1-node3 disconnected at 0:00:59 hrs
  WARNING: Node zone1-node4 disconnected at 0:00:59 hrs
  WARNING: Node zone1-node5 disconnected at 0:00:59 hrs
  WARNING: Node zone1-node6 disconnected at 0:00:59 hrs
  WARNING: Node zone1-node7 disconnected at 0:00:59 hrs
  WARNING: Node zone1-node8 disconnected at 0:00:59 hrs
  WARNING: Node zone1-node9 disconnected at 0:00:59 hrs
  WARNING: Node zone1-node1 disconnected at 0:00:59 hrs
  WARNING: System disconnected because of Link zone4-pump2
   
  WARNING: Negative pressures at 0:01:00 hrs.
  WARNING: Node zone1-node2 disconnected at 0:01:00 hrs
  WARNING: Node zone1-node3 disconnected at 0:01:00 hrs
  WARNING: Node zone1-node4 disconnected at 0:01:00 hrs
  WARNING: Node zone1-node5 disconnected at 0:01:00 hrs
  WARNING: Node zone1-node6 disconnected at 0:01:00 hrs
  WARNING: Node zone1-node7 disconnected at 0:01:00 hrs
  WARNING: Node zone1-node8 disconnected at 0:01:00 hrs
  WARNING: Node zone1-node9 disconnected at 0:01:00 hrs
  WARNING: Node zone1-node1 disconnected at 0:01:00 hrs
  WARNING: System disconnected because of Link zone4-pump2
   
  WARNING: Negative pressures at 0:01:01 hrs.
  WARNING: Node zone1-node2 disconnected at 0:01:01 hrs
  WARNING: Node zone1-node3 disconnected at 0:01:01 hrs
  WARNING: Node zone1-node4 disconnected at 0:01:01 hrs
  WARNING: Node zone1-node5 disconnected at 0:01:01 hrs
  WARNING: Node zone1-node6 disconnected at 0:01:01 hrs
  WARNING: Node zone1-node7 disconnected at 0:01:01 hrs
  WARNING: Node zone1-node8 disconnected at 0:01:01 hrs
  WARNING: Node zone1-node9 disconnected at 0:01:01 hrs
  WARNING: Node zone1-node1 disconnected at 0:01:01 hrs
  WARNING: System disconnected because of Link zone4-pump2
   
  WARNING: Negative pressures at 0:01:02 hrs.
  WARNING: Node zone1-node2 disconnected at 0:01:02 hrs
  WARNING: Node zone1-node3 disconnected at 0:01:02 hrs
  WARNING: Node zone1-node4 disconnected at 0:01:02 hrs
  WARNING: Node zone1-node5 disconnected at 0:01:02 hrs
  WARNING: Node zone1-node6 disconnected at 0:01:02 hrs
  WARNING: Node zone1-node7 disconnected at 0:01:02 hrs
  WARNING: Node zone1-node8 disconnected at 0:01:02 hrs
  WARNING: Node zone1-node9 disconnected at 0:01:02 hrs
  WARNING: Node zone1-node1 disconnected at 0:01:02 hrs
  WARNING: System disconnected because of Link zone4-pump2
   
  WARNING: Negative pressures at 0:01:03 hrs.
  WARNING: Node zone1-node2 disconnected at 0:01:03 hrs
  WARNING: Node zone1-node3 disconnected at 0:01:03 hrs
  WARNING: Node zone1-node4 disconnected at 0:01:03 hrs
  WARNING: Node zone1-node5 disconnected at 0:01:03 hrs
  WARNING: Node zone1-node6 disconnected at 0:01:03 hrs
  WARNING: Node zone1-node7 disconnected at 0:01:03 hrs
  WARNING: Node zone1-node8 disconnected at 0:01:03 hrs
  WARNING: Node zone1-node9 disconnected at 0:01:03 hrs
  WARNING: Node zone1-node1 disconnected at 0:01:03 hrs
  WARNING: System disconnected because of Link zone4-pump2
   
  WARNING: Negative pressures at 0:01:04 hrs.
  WARNING: Node zone1-node2 disconnected at 0:01:04 hrs
  WARNING: Node zone1-node3 disconnected at 0:01:04 hrs
  WARNING: Node zone1-node4 disconnected at 0:01:04 hrs
  WARNING: Node zone1-node5 disconnected at 0:01:04 hrs
  WARNING: Node zone1-node6 disconnected at 0:01:04 hrs
  WARNING: Node zone1-node7 disconnected at 0:01:04 hrs
  WARNING: Node zone1-node8 disconnected at 0:01:04 hrs
  WARNING: Node zone1-node9 disconnected at 0:01:04 hrs
  WARNING: Node zone1-node1 disconnected at 0:01:04 hrs
  WARNING: System disconnected because of Link zone4-pump2
   
  WARNING: Negative pressures at 0:01:05 hrs.
  WARNING: Node zone1-node2 disconnected at 0:01:05 hrs
  WARNING: Node zone1-node3 disconnected at 0:01:05 hrs
  WARNING: Node zone1-node4 disconnected at 0:01:05 hrs
  WARNING: Node zone1-node5 disconnected at 0:01:05 hrs
  WARNING: Node zone1-node6 disconnected at 0:01:05 hrs
  WARNING: Node zone1-node7 disconnected at 0:01:05 hrs
  WARNING: Node zone1-node8 disconnected at 0:01:05 hrs
  WARNING: Node zone1-node9 disconnected at 0:01:05 hrs
  WARNING: Node zone1-node1 disconnected at 0:01:05 hrs
  WARNING: System disconnected beca